<?xml version="1.0" encoding="UTF-8"?>
<!-- Generated by sumo/tools/generate_routes.py
     NS peak: 800 veh/hr  EW peak: 600 veh/hr -->
<routes xmlns:xsi="http://www.w3.org/2001/XMLSchema-instance"
        xsi:noNamespaceSchemaLocation="http://sumo.dlr.de/xsd/routes_file.xsd">

    <vType id="car" accel="2.6" decel="4.5" sigma="0.5" length="5.0"
           minGap="2.5" maxSpeed="13.89" guiShape="passenger"/>

    <!-- Through routes -->
    <route id="NS" edges="N2J J2S"/>
    <route id="SN" edges="S2J J2N"/>
    <route id="EW" edges="E2J J2W"/>
    <route id="WE" edges="W2J J2E"/>
    <!-- Turning routes -->
    <route id="NE" edges="N2J J2E"/>
    <route id="NW" edges="N2J J2W"/>
    <route id="SE" edges="S2J J2E"/>
    <route id="SW" edges="S2J J2W"/>
    <route id="EN" edges="E2J J2N"/>
    <route id="ES" edges="E2J J2S"/>
    <route id="WN" edges="W2J J2N"/>
    <route id="WS" edges="W2J J2S"/>

    <!-- Main NS flows (peak) -->
    <flow id="flow_NS" type="car" route="NS" begin="0" end="3600"
          vehsPerHour="400" departLane="random" departSpeed="max"/>
    <flow id="flow_SN" type="car" route="SN" begin="0" end="3600"
          vehsPerHour="400" departLane="random" departSpeed="max"/>

    <!-- Main EW flows (peak) -->
    <flow id="flow_EW" type="car" route="EW" begin="0" end="3600"
          vehsPerHour="300" departLane="random" departSpeed="max"/>
    <flow id="flow_WE" type="car" route="WE" begin="0" end="3600"
          vehsPerHour="300" departLane="random" departSpeed="max"/>

    <!-- Turning flows (~15% of through volume) -->
    <flow id="flow_NE" type="car" route="NE" begin="0" end="3600" vehsPerHour="80" departLane="random" departSpeed="max"/>
    <flow id="flow_NW" type="car" route="NW" begin="0" end="3600" vehsPerHour="40" departLane="random" departSpeed="max"/>
    <flow id="flow_SE" type="car" route="SE" begin="0" end="3600" vehsPerHour="40" departLane="random" departSpeed="max"/>
    <flow id="flow_SW" type="car" route="SW" begin="0" end="3600" vehsPerHour="80" departLane="random" departSpeed="max"/>
    <flow id="flow_EN" type="car" route="EN" begin="0" end="3600" vehsPerHour="50" departLane="random" departSpeed="max"/>
    <flow id="flow_ES" type="car" route="ES" begin="0" end="3600" vehsPerHour="30" departLane="random" departSpeed="max"/>
    <flow id="flow_WN" type="car" route="WN" begin="0" end="3600" vehsPerHour="30" departLane="random" departSpeed="max"/>
    <flow id="flow_WS" type="car" route="WS" begin="0" end="3600" vehsPerHour="50" departLane="random" departSpeed="max"/>

</routes>
