<nodes>
    <node id="J0" x="250.0" y="250.0" type="traffic_light"/>
    <node id="N" x="250.0" y="450.0" type="priority"/>
    <node id="S" x="250.0" y="50.0" type="priority"/>
    <node id="E" x="450.0" y="250.0" type="priority"/>
    <node id="W" x="50.0" y="250.0" type="priority"/>
</nodes>
