<?xml version="1.0" encoding="UTF-8"?>

<!-- generated on 2026-03-10T23:52:55.806463+01:00 by Eclipse SUMO netconvert v1_26_0+0351-4245ef5fa3b
<netconvertConfiguration xmlns:xsi="http://www.w3.org/2001/XMLSchema-instance" xsi:noNamespaceSchemaLocation="http://sumo.dlr.de/xsd/netconvertConfiguration.xsd">

    <input>
        <node-files value="sumo/networks/casablanca_intersection.nod.xml"/>
        <edge-files value="sumo/networks/casablanca_intersection.edg.xml"/>
    </input>

    <output>
        <output-file value="sumo/networks/casablanca_intersection.net.xml"/>
    </output>

</netconvertConfiguration>
-->

<net version="1.20" junctionCornerDetail="5" limitTurnSpeed="5.50" xmlns:xsi="http://www.w3.org/2001/XMLSchema-instance" xsi:noNamespaceSchemaLocation="http://sumo.dlr.de/xsd/net_file.xsd">

    <location netOffset="-50.00,-50.00" convBoundary="0.00,0.00,400.00,400.00" origBoundary="50.00,50.00,450.00,450.00" projParameter="!"/>

    <edge id=":E_0" function="internal">
        <lane id=":E_0_0" index="0" speed="3.65" length="4.67" shape="400.00,198.40 401.20,199.20 401.60,200.00 401.20,200.80 400.00,201.60"/>
    </edge>
    <edge id=":J0_0" function="internal">
        <lane id=":J0_0_0" index="0" speed="6.51" length="9.03" shape="195.20,210.40 194.85,207.95 193.80,206.20 192.05,205.15 189.60,204.80"/>
    </edge>
    <edge id=":J0_1" function="internal">
        <lane id=":J0_1_0" index="0" speed="13.89" length="20.80" shape="195.20,210.40 195.20,189.60"/>
        <lane id=":J0_1_1" index="1" speed="13.89" length="20.80" shape="198.40,210.40 198.40,189.60"/>
    </edge>
    <edge id=":J0_3" function="internal">
        <lane id=":J0_3_0" index="0" speed="9.26" length="5.01" shape="198.40,210.40 199.11,205.44"/>
    </edge>
    <edge id=":J0_4" function="internal">
        <lane id=":J0_4_0" index="0" speed="3.65" length="1.44" shape="198.40,210.40 199.20,209.20"/>
    </edge>
    <edge id=":J0_20" function="internal">
        <lane id=":J0_20_0" index="0" speed="9.26" length="14.34" shape="199.11,205.44 199.15,205.15 201.40,201.40 205.15,199.15 210.40,198.40"/>
    </edge>
    <edge id=":J0_21" function="internal">
        <lane id=":J0_21_0" index="0" speed="3.65" length="3.23" shape="199.20,209.20 200.00,208.80 200.80,209.20 201.60,210.40"/>
    </edge>
    <edge id=":J0_5" function="internal">
        <lane id=":J0_5_0" index="0" speed="6.51" length="9.03" shape="210.40,204.80 207.95,205.15 206.20,206.20 205.15,207.95 204.80,210.40"/>
    </edge>
    <edge id=":J0_6" function="internal">
        <lane id=":J0_6_0" index="0" speed="13.89" length="20.80" shape="210.40,204.80 189.60,204.80"/>
        <lane id=":J0_6_1" index="1" speed="13.89" length="20.80" shape="210.40,201.60 189.60,201.60"/>
    </edge>
    <edge id=":J0_8" function="internal">
        <lane id=":J0_8_0" index="0" speed="9.26" length="5.01" shape="210.40,201.60 205.44,200.89"/>
    </edge>
    <edge id=":J0_9" function="internal">
        <lane id=":J0_9_0" index="0" speed="3.65" length="1.44" shape="210.40,201.60 209.20,200.80"/>
    </edge>
    <edge id=":J0_22" function="internal">
        <lane id=":J0_22_0" index="0" speed="9.26" length="14.34" shape="205.44,200.89 205.15,200.85 201.40,198.60 199.15,194.85 198.40,189.60"/>
    </edge>
    <edge id=":J0_23" function="internal">
        <lane id=":J0_23_0" index="0" speed="3.65" length="3.23" shape="209.20,200.80 208.80,200.00 209.20,199.20 210.40,198.40"/>
    </edge>
    <edge id=":J0_10" function="internal">
        <lane id=":J0_10_0" index="0" speed="6.51" length="9.03" shape="204.80,189.60 205.15,192.05 206.20,193.80 207.95,194.85 210.40,195.20"/>
    </edge>
    <edge id=":J0_11" function="internal">
        <lane id=":J0_11_0" index="0" speed="13.89" length="20.80" shape="204.80,189.60 204.80,210.40"/>
        <lane id=":J0_11_1" index="1" speed="13.89" length="20.80" shape="201.60,189.60 201.60,210.40"/>
    </edge>
    <edge id=":J0_13" function="internal">
        <lane id=":J0_13_0" index="0" speed="9.26" length="5.01" shape="201.60,189.60 200.89,194.56"/>
    </edge>
    <edge id=":J0_14" function="internal">
        <lane id=":J0_14_0" index="0" speed="3.65" length="1.44" shape="201.60,189.60 200.80,190.80"/>
    </edge>
    <edge id=":J0_24" function="internal">
        <lane id=":J0_24_0" index="0" speed="9.26" length="14.34" shape="200.89,194.56 200.85,194.85 198.60,198.60 194.85,200.85 189.60,201.60"/>
    </edge>
    <edge id=":J0_25" function="internal">
        <lane id=":J0_25_0" index="0" speed="3.65" length="3.23" shape="200.80,190.80 200.00,191.20 199.20,190.80 198.40,189.60"/>
    </edge>
    <edge id=":J0_15" function="internal">
        <lane id=":J0_15_0" index="0" speed="6.51" length="9.03" shape="189.60,195.20 192.05,194.85 193.80,193.80 194.85,192.05 195.20,189.60"/>
    </edge>
    <edge id=":J0_16" function="internal">
        <lane id=":J0_16_0" index="0" speed="13.89" length="20.80" shape="189.60,195.20 210.40,195.20"/>
        <lane id=":J0_16_1" index="1" speed="13.89" length="20.80" shape="189.60,198.40 210.40,198.40"/>
    </edge>
    <edge id=":J0_18" function="internal">
        <lane id=":J0_18_0" index="0" speed="9.26" length="5.01" shape="189.60,198.40 194.56,199.11"/>
    </edge>
    <edge id=":J0_19" function="internal">
        <lane id=":J0_19_0" index="0" speed="3.65" length="1.44" shape="189.60,198.40 190.80,199.20"/>
    </edge>
    <edge id=":J0_26" function="internal">
        <lane id=":J0_26_0" index="0" speed="9.26" length="14.34" shape="194.56,199.11 194.85,199.15 198.60,201.40 200.85,205.15 201.60,210.40"/>
    </edge>
    <edge id=":J0_27" function="internal">
        <lane id=":J0_27_0" index="0" speed="3.65" length="3.23" shape="190.80,199.20 191.20,200.00 190.80,200.80 189.60,201.60"/>
    </edge>
    <edge id=":N_0" function="internal">
        <lane id=":N_0_0" index="0" speed="3.65" length="4.67" shape="201.60,400.00 200.80,401.20 200.00,401.60 199.20,401.20 198.40,400.00"/>
    </edge>
    <edge id=":S_0" function="internal">
        <lane id=":S_0_0" index="0" speed="3.65" length="4.67" shape="198.40,0.00 199.20,-1.20 200.00,-1.60 200.80,-1.20 201.60,0.00"/>
    </edge>
    <edge id=":W_0" function="internal">
        <lane id=":W_0_0" index="0" speed="3.65" length="4.67" shape="0.00,201.60 -1.20,200.80 -1.60,200.00 -1.20,199.20 0.00,198.40"/>
    </edge>

    <edge id="E2J" from="E" to="J0" priority="-1">
        <lane id="E2J_0" index="0" speed="13.89" length="189.60" shape="400.00,204.80 210.40,204.80"/>
        <lane id="E2J_1" index="1" speed="13.89" length="189.60" shape="400.00,201.60 210.40,201.60"/>
    </edge>
    <edge id="J2E" from="J0" to="E" priority="-1">
        <lane id="J2E_0" index="0" speed="13.89" length="189.60" shape="210.40,195.20 400.00,195.20"/>
        <lane id="J2E_1" index="1" speed="13.89" length="189.60" shape="210.40,198.40 400.00,198.40"/>
    </edge>
    <edge id="J2N" from="J0" to="N" priority="-1">
        <lane id="J2N_0" index="0" speed="13.89" length="189.60" shape="204.80,210.40 204.80,400.00"/>
        <lane id="J2N_1" index="1" speed="13.89" length="189.60" shape="201.60,210.40 201.60,400.00"/>
    </edge>
    <edge id="J2S" from="J0" to="S" priority="-1">
        <lane id="J2S_0" index="0" speed="13.89" length="189.60" shape="195.20,189.60 195.20,0.00"/>
        <lane id="J2S_1" index="1" speed="13.89" length="189.60" shape="198.40,189.60 198.40,0.00"/>
    </edge>
    <edge id="J2W" from="J0" to="W" priority="-1">
        <lane id="J2W_0" index="0" speed="13.89" length="189.60" shape="189.60,204.80 0.00,204.80"/>
        <lane id="J2W_1" index="1" speed="13.89" length="189.60" shape="189.60,201.60 0.00,201.60"/>
    </edge>
    <edge id="N2J" from="N" to="J0" priority="-1">
        <lane id="N2J_0" index="0" speed="13.89" length="189.60" shape="195.20,400.00 195.20,210.40"/>
        <lane id="N2J_1" index="1" speed="13.89" length="189.60" shape="198.40,400.00 198.40,210.40"/>
    </edge>
    <edge id="S2J" from="S" to="J0" priority="-1">
        <lane id="S2J_0" index="0" speed="13.89" length="189.60" shape="204.80,0.00 204.80,189.60"/>
        <lane id="S2J_1" index="1" speed="13.89" length="189.60" shape="201.60,0.00 201.60,189.60"/>
    </edge>
    <edge id="W2J" from="W" to="J0" priority="-1">
        <lane id="W2J_0" index="0" speed="13.89" length="189.60" shape="0.00,195.20 189.60,195.20"/>
        <lane id="W2J_1" index="1" speed="13.89" length="189.60" shape="0.00,198.40 189.60,198.40"/>
    </edge>

    <tlLogic id="J0" type="static" programID="0" offset="0">
        <phase duration="42" state="GGGggrrrrrGGGggrrrrr"/>
        <phase duration="3"  state="yyyyyrrrrryyyyyrrrrr"/>
        <phase duration="42" state="rrrrrGGGggrrrrrGGGgg"/>
        <phase duration="3"  state="rrrrryyyyyrrrrryyyyy"/>
    </tlLogic>

    <junction id="E" type="priority" x="400.00" y="200.00" incLanes="J2E_0 J2E_1" intLanes=":E_0_0" shape="400.00,200.00 400.00,193.60 400.00,200.00">
        <request index="0" response="0" foes="0" cont="0"/>
    </junction>
    <junction id="J0" type="traffic_light" x="200.00" y="200.00" incLanes="N2J_0 N2J_1 E2J_0 E2J_1 S2J_0 S2J_1 W2J_0 W2J_1" intLanes=":J0_0_0 :J0_1_0 :J0_1_1 :J0_20_0 :J0_21_0 :J0_5_0 :J0_6_0 :J0_6_1 :J0_22_0 :J0_23_0 :J0_10_0 :J0_11_0 :J0_11_1 :J0_24_0 :J0_25_0 :J0_15_0 :J0_16_0 :J0_16_1 :J0_26_0 :J0_27_0" shape="193.60,210.40 206.40,210.40 206.84,208.18 207.40,207.40 208.18,206.84 209.18,206.51 210.40,206.40 210.40,193.60 208.18,193.16 207.40,192.60 206.84,191.82 206.51,190.82 206.40,189.60 193.60,189.60 193.16,191.82 192.60,192.60 191.82,193.16 190.82,193.49 189.60,193.60 189.60,206.40 191.82,206.84 192.60,207.40 193.16,208.18 193.49,209.18">
        <request index="0"  response="00000000000000000000" foes="00000000000011000000" cont="0"/>
        <request index="1"  response="01000000000000000000" foes="01111110000111000000" cont="0"/>
        <request index="2"  response="01000000000100000000" foes="01111110000111000000" cont="0"/>
        <request index="3"  response="01000001100100000000" foes="01110001101111000000" cont="1"/>
        <request index="4"  response="01000001100000000000" foes="01000001100000000000" cont="1"/>
        <request index="5"  response="00000001100000000000" foes="00000001100000000000" cont="0"/>
        <request index="6"  response="00000011100000001111" foes="11000011100000001111" cont="0"/>
        <request index="7"  response="00000011100000001111" foes="11000011100000001111" cont="0"/>
        <request index="8"  response="00110011100000001110" foes="00110111100000001110" cont="1"/>
        <request index="9"  response="00110000000000001000" foes="00110000000000001000" cont="1"/>
        <request index="10" response="00000000000000000000" foes="00110000000000000000" cont="0"/>
        <request index="11" response="00000000000100000000" foes="01110000000111111000" cont="0"/>
        <request index="12" response="01000000000100000000" foes="01110000000111111000" cont="0"/>
        <request index="13" response="01000000000100000110" foes="11110000000111000110" cont="1"/>
        <request index="14" response="00000000000100000110" foes="00000000000100000110" cont="1"/>
        <request index="15" response="00000000000000000110" foes="00000000000000000110" cont="0"/>
        <request index="16" response="00000011110000001110" foes="00000011111100001110" cont="0"/>
        <request index="17" response="00000011110000001110" foes="00000011111100001110" cont="0"/>
        <request index="18" response="00000011100011001110" foes="00000011100011011110" cont="1"/>
        <request index="19" response="00000010000011000000" foes="00000010000011000000" cont="1"/>
    </junction>
    <junction id="N" type="priority" x="200.00" y="400.00" incLanes="J2N_0 J2N_1" intLanes=":N_0_0" shape="200.00,400.00 206.40,400.00 200.00,400.00">
        <request index="0" response="0" foes="0" cont="0"/>
    </junction>
    <junction id="S" type="priority" x="200.00" y="0.00" incLanes="J2S_0 J2S_1" intLanes=":S_0_0" shape="200.00,0.00 193.60,0.00 200.00,0.00">
        <request index="0" response="0" foes="0" cont="0"/>
    </junction>
    <junction id="W" type="priority" x="0.00" y="200.00" incLanes="J2W_0 J2W_1" intLanes=":W_0_0" shape="0.00,200.00 0.00,206.40 0.00,200.00">
        <request index="0" response="0" foes="0" cont="0"/>
    </junction>

    <junction id=":J0_20_0" type="internal" x="199.11" y="205.44" incLanes=":J0_3_0 S2J_0 S2J_1" intLanes=":J0_6_0 :J0_6_1 :J0_8_0 :J0_9_0 :J0_10_0 :J0_11_0 :J0_11_1 :J0_16_0 :J0_16_1 :J0_18_0"/>
    <junction id=":J0_21_0" type="internal" x="199.20" y="209.20" incLanes=":J0_4_0 E2J_0 S2J_0 S2J_1 W2J_1" intLanes=":J0_5_0 :J0_11_0 :J0_11_1 :J0_18_0"/>
    <junction id=":J0_22_0" type="internal" x="205.44" y="200.89" incLanes=":J0_8_0 W2J_0 W2J_1" intLanes=":J0_1_0 :J0_1_1 :J0_3_0 :J0_11_0 :J0_11_1 :J0_13_0 :J0_14_0 :J0_15_0 :J0_16_0 :J0_16_1"/>
    <junction id=":J0_23_0" type="internal" x="209.20" y="200.80" incLanes=":J0_9_0 N2J_1 S2J_0 W2J_0 W2J_1" intLanes=":J0_3_0 :J0_10_0 :J0_16_0 :J0_16_1"/>
    <junction id=":J0_24_0" type="internal" x="200.89" y="194.56" incLanes=":J0_13_0 N2J_0 N2J_1" intLanes=":J0_0_0 :J0_1_0 :J0_1_1 :J0_6_0 :J0_6_1 :J0_8_0 :J0_16_0 :J0_16_1 :J0_18_0 :J0_19_0"/>
    <junction id=":J0_25_0" type="internal" x="200.80" y="190.80" incLanes=":J0_14_0 E2J_1 N2J_0 N2J_1 W2J_0" intLanes=":J0_1_0 :J0_1_1 :J0_8_0 :J0_15_0"/>
    <junction id=":J0_26_0" type="internal" x="194.56" y="199.11" incLanes=":J0_18_0 E2J_0 E2J_1" intLanes=":J0_1_0 :J0_1_1 :J0_3_0 :J0_4_0 :J0_5_0 :J0_6_0 :J0_6_1 :J0_11_0 :J0_11_1 :J0_13_0"/>
    <junction id=":J0_27_0" type="internal" x="190.80" y="199.20" incLanes=":J0_19_0 E2J_0 E2J_1 N2J_0 S2J_1" intLanes=":J0_0_0 :J0_6_0 :J0_6_1 :J0_13_0"/>

    <connection from="E2J" to="J2N" fromLane="0" toLane="0" via=":J0_5_0" tl="J0" linkIndex="5" dir="r" state="o"/>
    <connection from="E2J" to="J2W" fromLane="0" toLane="0" via=":J0_6_0" tl="J0" linkIndex="6" dir="s" state="o"/>
    <connection from="E2J" to="J2W" fromLane="1" toLane="1" via=":J0_6_1" tl="J0" linkIndex="7" dir="s" state="o"/>
    <connection from="E2J" to="J2S" fromLane="1" toLane="1" via=":J0_8_0" tl="J0" linkIndex="8" dir="l" state="o"/>
    <connection from="E2J" to="J2E" fromLane="1" toLane="1" via=":J0_9_0" tl="J0" linkIndex="9" dir="t" state="o"/>
    <connection from="J2E" to="E2J" fromLane="1" toLane="1" via=":E_0_0" dir="t" state="M"/>
    <connection from="J2N" to="N2J" fromLane="1" toLane="1" via=":N_0_0" dir="t" state="M"/>
    <connection from="J2S" to="S2J" fromLane="1" toLane="1" via=":S_0_0" dir="t" state="M"/>
    <connection from="J2W" to="W2J" fromLane="1" toLane="1" via=":W_0_0" dir="t" state="M"/>
    <connection from="N2J" to="J2W" fromLane="0" toLane="0" via=":J0_0_0" tl="J0" linkIndex="0" dir="r" state="O"/>
    <connection from="N2J" to="J2S" fromLane="0" toLane="0" via=":J0_1_0" tl="J0" linkIndex="1" dir="s" state="O"/>
    <connection from="N2J" to="J2S" fromLane="1" toLane="1" via=":J0_1_1" tl="J0" linkIndex="2" dir="s" state="O"/>
    <connection from="N2J" to="J2E" fromLane="1" toLane="1" via=":J0_3_0" tl="J0" linkIndex="3" dir="l" state="o"/>
    <connection from="N2J" to="J2N" fromLane="1" toLane="1" via=":J0_4_0" tl="J0" linkIndex="4" dir="t" state="o"/>
    <connection from="S2J" to="J2E" fromLane="0" toLane="0" via=":J0_10_0" tl="J0" linkIndex="10" dir="r" state="O"/>
    <connection from="S2J" to="J2N" fromLane="0" toLane="0" via=":J0_11_0" tl="J0" linkIndex="11" dir="s" state="O"/>
    <connection from="S2J" to="J2N" fromLane="1" toLane="1" via=":J0_11_1" tl="J0" linkIndex="12" dir="s" state="O"/>
    <connection from="S2J" to="J2W" fromLane="1" toLane="1" via=":J0_13_0" tl="J0" linkIndex="13" dir="l" state="o"/>
    <connection from="S2J" to="J2S" fromLane="1" toLane="1" via=":J0_14_0" tl="J0" linkIndex="14" dir="t" state="o"/>
    <connection from="W2J" to="J2S" fromLane="0" toLane="0" via=":J0_15_0" tl="J0" linkIndex="15" dir="r" state="o"/>
    <connection from="W2J" to="J2E" fromLane="0" toLane="0" via=":J0_16_0" tl="J0" linkIndex="16" dir="s" state="o"/>
    <connection from="W2J" to="J2E" fromLane="1" toLane="1" via=":J0_16_1" tl="J0" linkIndex="17" dir="s" state="o"/>
    <connection from="W2J" to="J2N" fromLane="1" toLane="1" via=":J0_18_0" tl="J0" linkIndex="18" dir="l" state="o"/>
    <connection from="W2J" to="J2W" fromLane="1" toLane="1" via=":J0_19_0" tl="J0" linkIndex="19" dir="t" state="o"/>

    <connection from=":E_0" to="E2J" fromLane="0" toLane="1" dir="t" state="M"/>
    <connection from=":J0_0" to="J2W" fromLane="0" toLane="0" dir="r" state="M"/>
    <connection from=":J0_1" to="J2S" fromLane="0" toLane="0" dir="s" state="M"/>
    <connection from=":J0_1" to="J2S" fromLane="1" toLane="1" dir="s" state="M"/>
    <connection from=":J0_3" to="J2E" fromLane="0" toLane="1" via=":J0_20_0" dir="l" state="m"/>
    <connection from=":J0_20" to="J2E" fromLane="0" toLane="1" dir="l" state="M"/>
    <connection from=":J0_4" to="J2N" fromLane="0" toLane="1" via=":J0_21_0" dir="t" state="m"/>
    <connection from=":J0_21" to="J2N" fromLane="0" toLane="1" dir="t" state="M"/>
    <connection from=":J0_5" to="J2N" fromLane="0" toLane="0" dir="r" state="M"/>
    <connection from=":J0_6" to="J2W" fromLane="0" toLane="0" dir="s" state="M"/>
    <connection from=":J0_6" to="J2W" fromLane="1" toLane="1" dir="s" state="M"/>
    <connection from=":J0_8" to="J2S" fromLane="0" toLane="1" via=":J0_22_0" dir="l" state="m"/>
    <connection from=":J0_22" to="J2S" fromLane="0" toLane="1" dir="l" state="M"/>
    <connection from=":J0_9" to="J2E" fromLane="0" toLane="1" via=":J0_23_0" dir="t" state="m"/>
    <connection from=":J0_23" to="J2E" fromLane="0" toLane="1" dir="t" state="M"/>
    <connection from=":J0_10" to="J2E" fromLane="0" toLane="0" dir="r" state="M"/>
    <connection from=":J0_11" to="J2N" fromLane="0" toLane="0" dir="s" state="M"/>
    <connection from=":J0_11" to="J2N" fromLane="1" toLane="1" dir="s" state="M"/>
    <connection from=":J0_13" to="J2W" fromLane="0" toLane="1" via=":J0_24_0" dir="l" state="m"/>
    <connection from=":J0_24" to="J2W" fromLane="0" toLane="1" dir="l" state="M"/>
    <connection from=":J0_14" to="J2S" fromLane="0" toLane="1" via=":J0_25_0" dir="t" state="m"/>
    <connection from=":J0_25" to="J2S" fromLane="0" toLane="1" dir="t" state="M"/>
    <connection from=":J0_15" to="J2S" fromLane="0" toLane="0" dir="r" state="M"/>
    <connection from=":J0_16" to="J2E" fromLane="0" toLane="0" dir="s" state="M"/>
    <connection from=":J0_16" to="J2E" fromLane="1" toLane="1" dir="s" state="M"/>
    <connection from=":J0_18" to="J2N" fromLane="0" toLane="1" via=":J0_26_0" dir="l" state="m"/>
    <connection from=":J0_26" to="J2N" fromLane="0" toLane="1" dir="l" state="M"/>
    <connection from=":J0_19" to="J2W" fromLane="0" toLane="1" via=":J0_27_0" dir="t" state="m"/>
    <connection from=":J0_27" to="J2W" fromLane="0" toLane="1" dir="t" state="M"/>
    <connection from=":N_0" to="N2J" fromLane="0" toLane="1" dir="t" state="M"/>
    <connection from=":S_0" to="S2J" fromLane="0" toLane="1" dir="t" state="M"/>
    <connection from=":W_0" to="W2J" fromLane="0" toLane="1" dir="t" state="M"/>

</net>
