<?xml version="1.0" encoding="UTF-8"?>
<!--
  Plain XML edges for 4-way intersection.
  Each approach has one edge toward center and one edge from center (200 m each).
  Edge IDs are used in routes.rou.xml.
-->
<edges xmlns:xsi="http://www.w3.org/2001/XMLSchema-instance"
       xsi:noNamespaceSchemaLocation="http://sumo.dlr.de/xsd/edges_file.xsd">
    <!-- North: north <-> center -->
    <edge id="north_in" from="north" to="center" numLanes="1" speed="13.89"/>
    <edge id="north_out" from="center" to="north" numLanes="1" speed="13.89"/>
    <!-- South -->
    <edge id="south_in" from="south" to="center" numLanes="1" speed="13.89"/>
    <edge id="south_out" from="center" to="south" numLanes="1" speed="13.89"/>
    <!-- East -->
    <edge id="east_in" from="east" to="center" numLanes="1" speed="13.89"/>
    <edge id="east_out" from="center" to="east" numLanes="1" speed="13.89"/>
    <!-- West -->
    <edge id="west_in" from="west" to="center" numLanes="1" speed="13.89"/>
    <edge id="west_out" from="center" to="west" numLanes="1" speed="13.89"/>
</edges>
